VERS 190513 80 123457 L123457
MODE SEQ
NAME 
PFIL 0 0 0
LANG 0
UNIT MM X W X CM MR CPMM
ENPD 0.9122868652747712
ENVD 2.0E+1 1 0
GFAC 0 0
GCAT OSAKAGASCHEMICAL MISC
XFLN 0. 0. 0.
YFLN 0.0 17.632389234665034 24.690332874566316
WAVL 0.4861327 0.5875618 0.6562725
RAIM 0 0 1 1 0 0 0 0 0
PUSH 0 0 0 0 0 0
SDMA 0 1 0
FTYP 0 0 3 3 0 0 0
ROPD 2
PICB 1
PWAV 2
POLS 1 0 1 0 0 1 0
GLRS 1 0
GSTD 0 100.000 100.000 100.000 100.000 100.000 100.000 0 1 1 0 0 1 1 1 1 1 1
NSCD 100 500 0 1.0E-3 5 1.0E-6 0 0 0 0 0 0 1000000 0 2
COFN QF "COATING.DAT" "SCATTER_PROFILE.DAT" "ABG_DATA.DAT" "PROFILE.GRD"
COFN COATING.DAT SCATTER_PROFILE.DAT ABG_DATA.DAT PROFILE.GRD
SURF 0
    TYPE STANDARD
    FIMP 
    CURV 0.0 0 0 0 0 ""
    HIDE 1 0 0 0 0 0 0 0 0 0
    DISZ INFINITY
SURF 1
    STOP
    TYPE STANDARD
    FIMP 
    CURV 0.0 0 0 0 0 ""
    HIDE 1 0 0 0 0 0 0 0 0 0
    DISZ 9.999938e-02
    DIAM 0.4561434326373856
SURF 2
    TYPE EVENASPH
    FIMP 
    CURV 5.1742e-03 1 0 0 0 ""
    HIDE 0 0 0 0 0 0 0 0 0 0
    MIRR 2 0


    SLAB 6
    PARM 1 4.33359004e-04
    VPAR 1
    PARM 2 2.15098862e-05
    VPAR 2
    PARM 3 -2.09507084e-06
    VPAR 3
    PARM 4 3.00686338e-07
    VPAR 4
    PARM 5 -2.0924911581e-08
    VPAR 5
    PARM 6 -2.969015255871e-09
    VPAR 6
    PARM 7 0
    PARM 8 0


    DISZ 1.369993e+00
    GLAS zeon 0 0 1.5346 56.1
    CONI 2.795646e-01
    VDSZ 0 0
    DIAM 0.6975565552711487 1 0 0 1 ""
    POPS 0 0 0 0 0 0 0 0 1 1 1 1 0 0 0 0
    FLAP 0 0.6975565552711487 0
SURF 3
    TYPE EVENASPH
    FIMP 
    CURV -1.9602e-03 1 0 0 0 ""
    HIDE 0 0 0 0 0 0 0 0 0 0
    MIRR 2 0


    SLAB 6
    PARM 1 -9.77160817e-05
    VPAR 1
    PARM 2 -6.23811729e-06
    VPAR 2
    PARM 3 3.08391532e-06
    VPAR 3
    PARM 4 -3.23717842e-07
    VPAR 4
    PARM 5 -2.6555593280e-08
    VPAR 5
    PARM 6 7.690835190921e-10
    VPAR 6
    PARM 7 0
    PARM 8 0


    DISZ 5.340086e-01
    CONI 7.346700e-01
    VDSZ 0 0
    DIAM 1.0458344221115112 1 0 0 1 ""
    POPS 0 0 0 0 0 0 0 0 1 1 1 1 0 0 0 0
    FLAP 0 1.0458344221115112 0
SURF 4
    TYPE EVENASPH
    FIMP 
    CURV -9.3928e-03 1 0 0 0 ""
    HIDE 0 0 0 0 0 0 0 0 0 0
    MIRR 2 0


    SLAB 6
    PARM 1 -4.09342392e-05
    VPAR 1
    PARM 2 -5.92793049e-06
    VPAR 2
    PARM 3 3.04876198e-06
    VPAR 3
    PARM 4 -2.91230844e-08
    VPAR 4
    PARM 5 1.4765949352e-08
    VPAR 5
    PARM 6 -1.486367695591e-09
    VPAR 6
    PARM 7 0
    PARM 8 0


    DISZ 6.849899e-01
    GLAS zeon 0 0 1.5346 56.1
    CONI 7.985254e-01
    VDSZ 0 0
    DIAM 1.261643886566162 1 0 0 1 ""
    POPS 0 0 0 0 0 0 0 0 1 1 1 1 0 0 0 0
    FLAP 0 1.261643886566162 0
SURF 5
    TYPE EVENASPH
    FIMP 
    CURV -2.0726e-03 0 0 0 0 ""
    HIDE 0 0 0 0 0 0 0 0 0 0
    MIRR 2 0

      
    SLAB 6
    PARM 1 7.46861988e-05
    PARM 2 -3.77941542e-05
    PARM 3 1.87222327e-06
    PARM 4 -1.61288867e-07
    PARM 5 -3.6307934437e-08
    PARM 6 -1.619056666513e-09
    PARM 7 0
    PARM 8 0


    DISZ 1.300009e+00
    CONI 7.543626e-01
    VDSZ 0 0
    DIAM 1.439212441444397 1 0 0 1 ""
    POPS 0 0 0 0 0 0 0 0 1 1 1 1 0 0 0 0
SURF 6
    TYPE STANDARD
    CURV 0.
    DISZ 0.0
    DIAM 1.5
