VERS 190513 80 123457 L123457
MODE SEQ
NAME 
PFIL 0 0 0
LANG 0
UNIT MM X W X CM MR CPMM
ENPD 0.9122868652747712
ENVD 2.0E+1 1 0
GFAC 0 0
GCAT OSAKAGASCHEMICAL MISC
XFLN 0. 0. 0.
YFLN 0.0 17.63064827221334 24.687895034641027
WAVL 0.4861327 0.5875618 0.6562725
RAIM 0 0 1 1 0 0 0 0 0
PUSH 0 0 0 0 0 0
SDMA 0 1 0
FTYP 0 0 3 3 0 0 0
ROPD 2
PICB 1
PWAV 2
POLS 1 0 1 0 0 1 0
GLRS 1 0
GSTD 0 100.000 100.000 100.000 100.000 100.000 100.000 0 1 1 0 0 1 1 1 1 1 1
NSCD 100 500 0 1.0E-3 5 1.0E-6 0 0 0 0 0 0 1000000 0 2
COFN QF "COATING.DAT" "SCATTER_PROFILE.DAT" "ABG_DATA.DAT" "PROFILE.GRD"
COFN COATING.DAT SCATTER_PROFILE.DAT ABG_DATA.DAT PROFILE.GRD
SURF 0
    TYPE STANDARD
    FIMP 
    CURV 0.0 0 0 0 0 ""
    HIDE 1 0 0 0 0 0 0 0 0 0
    DISZ INFINITY
SURF 1
    STOP
    TYPE STANDARD
    FIMP 
    CURV 0.0 0 0 0 0 ""
    HIDE 1 0 0 0 0 0 0 0 0 0
    DISZ 9.999938e-02
    DIAM 0.4561434326373856
SURF 2
    TYPE EVENASPH
    FIMP 
    CURV 5.1618e-03 1 0 0 0 ""
    HIDE 0 0 0 0 0 0 0 0 0 0
    MIRR 2 0


    SLAB 6
    PARM 1 4.08670749e-04
    VPAR 1
    PARM 2 1.90120973e-05
    VPAR 2
    PARM 3 -2.34827894e-06
    VPAR 3
    PARM 4 2.75076019e-07
    VPAR 4
    PARM 5 -2.3506832036e-08
    VPAR 5
    PARM 6 -3.228463940630e-09
    VPAR 6
    PARM 7 0
    PARM 8 0


    DISZ 1.369998e+00
    GLAS zeon 0 0 1.5346 56.1
    CONI 2.794204e-01
    VDSZ 0 0
    DIAM 0.6975533366203308 1 0 0 1 ""
    POPS 0 0 0 0 0 0 0 0 1 1 1 1 0 0 0 0
    FLAP 0 0.6975533366203308 0
SURF 3
    TYPE EVENASPH
    FIMP 
    CURV -1.9477e-03 1 0 0 0 ""
    HIDE 0 0 0 0 0 0 0 0 0 0
    MIRR 2 0


    SLAB 6
    PARM 1 -7.28435189e-05
    VPAR 1
    PARM 2 -3.71738793e-06
    VPAR 2
    PARM 3 3.33897924e-06
    VPAR 3
    PARM 4 -2.98005801e-07
    VPAR 4
    PARM 5 -2.3974070729e-08
    VPAR 5
    PARM 6 1.027376517193e-09
    VPAR 6
    PARM 7 0
    PARM 8 0


    DISZ 5.340039e-01
    CONI 7.346790e-01
    VDSZ 0 0
    DIAM 1.0458580255508423 1 0 0 1 ""
    POPS 0 0 0 0 0 0 0 0 1 1 1 1 0 0 0 0
    FLAP 0 1.0458580255508423 0
SURF 4
    TYPE EVENASPH
    FIMP 
    CURV -9.4054e-03 1 0 0 0 ""
    HIDE 0 0 0 0 0 0 0 0 0 0
    MIRR 2 0


    SLAB 6
    PARM 1 -6.60963051e-05
    VPAR 1
    PARM 2 -8.46024068e-06
    VPAR 2
    PARM 3 2.79366918e-06
    VPAR 3
    PARM 4 -5.47687762e-08
    VPAR 4
    PARM 5 1.2195800814e-08
    VPAR 5
    PARM 6 -1.743110433772e-09
    VPAR 6
    PARM 7 0
    PARM 8 0


    DISZ 6.849957e-01
    GLAS zeon 0 0 1.5346 56.1
    CONI 7.992702e-01
    VDSZ 0 0
    DIAM 1.261674165725708 1 0 0 1 ""
    POPS 0 0 0 0 0 0 0 0 1 1 1 1 0 0 0 0
    FLAP 0 1.261674165725708 0
SURF 5
    TYPE EVENASPH
    FIMP 
    CURV -2.0598e-03 0 0 0 0 ""
    HIDE 0 0 0 0 0 0 0 0 0 0
    MIRR 2 0

      
    SLAB 6
    PARM 1 1.00309888e-04
    PARM 2 -3.52445386e-05
    PARM 3 2.12769987e-06
    PARM 4 -1.35678917e-07
    PARM 5 -3.3745877204e-08
    PARM 6 -1.363417823086e-09
    PARM 7 0
    PARM 8 0


    DISZ 1.300003e+00
    CONI 7.543700e-01
    VDSZ 0 0
    DIAM 1.439316749572754 1 0 0 1 ""
    POPS 0 0 0 0 0 0 0 0 1 1 1 1 0 0 0 0
SURF 6
    TYPE STANDARD
    CURV 0.
    DISZ 0.0
    DIAM 1.5
